[TITLE]
Valles Marineris 3000 CE - sample district potable distribution (EPANET 2.2)
Generated by the Valles Marineris Settlement Explorer. Illustrative looped network.

[JUNCTIONS]
;ID              Elev        Demand      Pattern
 J1              0.00        3.00        
 J2              -2.00       3.00        
 J3              -4.00       3.00        
 J4              -6.00       3.00        
 J5              -8.00       3.00        
 J6              -10.00      3.00        
 J7              -12.00      3.00        
 J8              -14.00      3.00        
 J9              -16.00      3.00        
 J10             -18.00      3.00        
 J11             -20.00      3.00        
 J12             -22.00      3.00        
 J13             -24.00      3.00        
 J14             -26.00      3.00        
 J15             -28.00      3.00        
 J16             -30.00      3.00        
 J17             -32.00      3.00        
 J18             -34.00      3.00        
 J19             -36.00      3.00        
 J20             -38.00      3.00        
 J21             0.00        3.00        
 J22             -2.00       3.00        
 J23             -4.00       3.00        
 J24             -6.00       3.00        
 J25             -8.00       3.00        
 J26             -10.00      3.00        
 J27             -12.00      3.00        
 J28             -14.00      3.00        
 J29             -16.00      3.00        
 J30             -18.00      3.00        
 J31             -20.00      3.00        
 J32             -22.00      3.00        
 J33             -24.00      3.00        
 J34             -26.00      3.00        
 J35             -28.00      3.00        
 J36             -30.00      3.00        
 J37             -32.00      3.00        
 J38             -34.00      3.00        
 J39             -36.00      3.00        
 J40             -38.00      3.00        
 J41             0.00        3.00        
 J42             -2.00       3.00        
 J43             -4.00       3.00        
 J44             -6.00       3.00        
 J45             -8.00       3.00        
 J46             -10.00      3.00        
 J47             -12.00      3.00        
 J48             -14.00      3.00        
 J49             -16.00      3.00        
 J50             -18.00      3.00        
 J51             -20.00      3.00        
 J52             -22.00      3.00        
 J53             -24.00      3.00        
 J54             -26.00      3.00        
 J55             -28.00      3.00        
 J56             -30.00      3.00        
 J57             -32.00      3.00        
 J58             -34.00      3.00        
 J59             -36.00      3.00        
 J60             -38.00      3.00        
 J61             0.00        3.00        
 J62             -2.00       3.00        
 J63             -4.00       3.00        
 J64             -6.00       3.00        
 J65             -8.00       3.00        
 J66             -10.00      3.00        
 J67             -12.00      3.00        
 J68             -14.00      3.00        
 J69             -16.00      3.00        
 J70             -18.00      3.00        
 J71             -20.00      3.00        
 J72             -22.00      3.00        
 J73             -24.00      3.00        
 J74             -26.00      3.00        
 J75             -28.00      3.00        
 J76             -30.00      3.00        
 J77             -32.00      3.00        
 J78             -34.00      3.00        
 J79             -36.00      3.00        
 J80             -38.00      3.00        
 J81             0.00        3.00        
 J82             -2.00       3.00        
 J83             -4.00       3.00        
 J84             -6.00       3.00        
 J85             -8.00       3.00        
 J86             -10.00      3.00        
 J87             -12.00      3.00        
 J88             -14.00      3.00        
 J89             -16.00      3.00        
 J90             -18.00      3.00        
 J91             -20.00      3.00        
 J92             -22.00      3.00        
 J93             -24.00      3.00        
 J94             -26.00      3.00        
 J95             -28.00      3.00        
 J96             -30.00      3.00        
 J97             -32.00      3.00        
 J98             -34.00      3.00        
 J99             -36.00      3.00        
 J100            -38.00      3.00        
 J101            0.00        3.00        
 J102            -2.00       3.00        
 J103            -4.00       3.00        
 J104            -6.00       3.00        
 J105            -8.00       3.00        
 J106            -10.00      3.00        
 J107            -12.00      3.00        
 J108            -14.00      3.00        
 J109            -16.00      3.00        
 J110            -18.00      3.00        
 J111            -20.00      3.00        
 J112            -22.00      3.00        
 J113            -24.00      3.00        
 J114            -26.00      3.00        
 J115            -28.00      3.00        
 J116            -30.00      3.00        
 J117            -32.00      3.00        
 J118            -34.00      3.00        
 J119            -36.00      3.00        
 J120            -38.00      3.00        
 J121            0.00        3.00        
 J122            -2.00       3.00        
 J123            -4.00       3.00        
 J124            -6.00       3.00        
 J125            -8.00       3.00        
 J126            -10.00      3.00        
 J127            -12.00      3.00        
 J128            -14.00      3.00        
 J129            -16.00      3.00        
 J130            -18.00      3.00        
 J131            -20.00      3.00        
 J132            -22.00      3.00        
 J133            -24.00      3.00        
 J134            -26.00      3.00        
 J135            -28.00      3.00        
 J136            -30.00      3.00        
 J137            -32.00      3.00        
 J138            -34.00      3.00        
 J139            -36.00      3.00        
 J140            -38.00      3.00        
 J141            0.00        3.00        
 J142            -2.00       3.00        
 J143            -4.00       3.00        
 J144            -6.00       3.00        
 J145            -8.00       3.00        
 J146            -10.00      3.00        
 J147            -12.00      3.00        
 J148            -14.00      3.00        
 J149            -16.00      3.00        
 J150            -18.00      3.00        
 J151            -20.00      3.00        
 J152            -22.00      3.00        
 J153            -24.00      3.00        
 J154            -26.00      3.00        
 J155            -28.00      3.00        
 J156            -30.00      3.00        
 J157            -32.00      3.00        
 J158            -34.00      3.00        
 J159            -36.00      3.00        
 J160            -38.00      3.00        
 J161            0.00        3.00        
 J162            -2.00       3.00        
 J163            -4.00       3.00        
 J164            -6.00       3.00        
 J165            -8.00       3.00        
 J166            -10.00      3.00        
 J167            -12.00      3.00        
 J168            -14.00      3.00        
 J169            -16.00      3.00        
 J170            -18.00      3.00        
 J171            -20.00      3.00        
 J172            -22.00      3.00        
 J173            -24.00      3.00        
 J174            -26.00      3.00        
 J175            -28.00      3.00        
 J176            -30.00      3.00        
 J177            -32.00      3.00        
 J178            -34.00      3.00        
 J179            -36.00      3.00        
 J180            -38.00      3.00        
 J181            0.00        3.00        
 J182            -2.00       3.00        
 J183            -4.00       3.00        
 J184            -6.00       3.00        
 J185            -8.00       3.00        
 J186            -10.00      3.00        
 J187            -12.00      3.00        
 J188            -14.00      3.00        
 J189            -16.00      3.00        
 J190            -18.00      3.00        
 J191            -20.00      3.00        
 J192            -22.00      3.00        
 J193            -24.00      3.00        
 J194            -26.00      3.00        
 J195            -28.00      3.00        
 J196            -30.00      3.00        
 J197            -32.00      3.00        
 J198            -34.00      3.00        
 J199            -36.00      3.00        
 J200            -38.00      3.00        
 J201            0.00        3.00        
 J202            -2.00       3.00        
 J203            -4.00       3.00        
 J204            -6.00       3.00        
 J205            -8.00       3.00        
 J206            -10.00      3.00        
 J207            -12.00      3.00        
 J208            -14.00      3.00        
 J209            -16.00      3.00        
 J210            -18.00      3.00        
 J211            -20.00      3.00        
 J212            -22.00      3.00        
 J213            -24.00      3.00        
 J214            -26.00      3.00        
 J215            -28.00      3.00        
 J216            -30.00      3.00        
 J217            -32.00      3.00        
 J218            -34.00      3.00        
 J219            -36.00      3.00        
 J220            -38.00      3.00        
 J221            0.00        3.00        
 J222            -2.00       3.00        
 J223            -4.00       3.00        
 J224            -6.00       3.00        
 J225            -8.00       3.00        
 J226            -10.00      3.00        
 J227            -12.00      3.00        
 J228            -14.00      3.00        
 J229            -16.00      3.00        
 J230            -18.00      3.00        
 J231            -20.00      3.00        
 J232            -22.00      3.00        
 J233            -24.00      3.00        
 J234            -26.00      3.00        
 J235            -28.00      3.00        
 J236            -30.00      3.00        
 J237            -32.00      3.00        
 J238            -34.00      3.00        
 J239            -36.00      3.00        
 J240            -38.00      3.00        

[RESERVOIRS]
;ID              Head        Pattern
 RES1            180         

[TANKS]
;ID              Elev   InitLvl MinLvl MaxLvl Diam   MinVol VolCurve
 TANK1           40     5       0      10     30     0      
 TANK2           40     5       0      10     30     0      

[PIPES]
;ID              Node1           Node2           Length      Diam        Rough       MLoss  Status
 P1              J1              J2              120.0       500         140         0      Open
 P2              J2              J3              120.0       300         140         0      Open
 P3              J3              J4              120.0       300         140         0      Open
 P4              J4              J5              120.0       300         140         0      Open
 P5              J5              J6              120.0       300         140         0      Open
 P6              J6              J7              120.0       300         140         0      Open
 P7              J7              J8              120.0       300         140         0      Open
 P8              J8              J9              120.0       300         140         0      Open
 P9              J9              J10             120.0       300         140         0      Open
 P10             J10             J11             120.0       300         140         0      Open
 P11             J11             J12             120.0       300         140         0      Open
 P12             J12             J13             120.0       300         140         0      Open
 P13             J13             J14             120.0       300         140         0      Open
 P14             J14             J15             120.0       300         140         0      Open
 P15             J15             J16             120.0       300         140         0      Open
 P16             J16             J17             120.0       300         140         0      Open
 P17             J17             J18             120.0       300         140         0      Open
 P18             J18             J19             120.0       300         140         0      Open
 P19             J19             J20             120.0       300         140         0      Open
 P20             J21             J22             120.0       500         140         0      Open
 P21             J22             J23             120.0       300         140         0      Open
 P22             J23             J24             120.0       300         140         0      Open
 P23             J24             J25             120.0       300         140         0      Open
 P24             J25             J26             120.0       300         140         0      Open
 P25             J26             J27             120.0       300         140         0      Open
 P26             J27             J28             120.0       300         140         0      Open
 P27             J28             J29             120.0       300         140         0      Open
 P28             J29             J30             120.0       300         140         0      Open
 P29             J30             J31             120.0       300         140         0      Open
 P30             J31             J32             120.0       300         140         0      Open
 P31             J32             J33             120.0       300         140         0      Open
 P32             J33             J34             120.0       300         140         0      Open
 P33             J34             J35             120.0       300         140         0      Open
 P34             J35             J36             120.0       300         140         0      Open
 P35             J36             J37             120.0       300         140         0      Open
 P36             J37             J38             120.0       300         140         0      Open
 P37             J38             J39             120.0       300         140         0      Open
 P38             J39             J40             120.0       300         140         0      Open
 P39             J41             J42             120.0       500         140         0      Open
 P40             J42             J43             120.0       300         140         0      Open
 P41             J43             J44             120.0       300         140         0      Open
 P42             J44             J45             120.0       300         140         0      Open
 P43             J45             J46             120.0       300         140         0      Open
 P44             J46             J47             120.0       300         140         0      Open
 P45             J47             J48             120.0       300         140         0      Open
 P46             J48             J49             120.0       300         140         0      Open
 P47             J49             J50             120.0       300         140         0      Open
 P48             J50             J51             120.0       300         140         0      Open
 P49             J51             J52             120.0       300         140         0      Open
 P50             J52             J53             120.0       300         140         0      Open
 P51             J53             J54             120.0       300         140         0      Open
 P52             J54             J55             120.0       300         140         0      Open
 P53             J55             J56             120.0       300         140         0      Open
 P54             J56             J57             120.0       300         140         0      Open
 P55             J57             J58             120.0       300         140         0      Open
 P56             J58             J59             120.0       300         140         0      Open
 P57             J59             J60             120.0       300         140         0      Open
 P58             J61             J62             120.0       500         140         0      Open
 P59             J62             J63             120.0       300         140         0      Open
 P60             J63             J64             120.0       300         140         0      Open
 P61             J64             J65             120.0       300         140         0      Open
 P62             J65             J66             120.0       300         140         0      Open
 P63             J66             J67             120.0       300         140         0      Open
 P64             J67             J68             120.0       300         140         0      Open
 P65             J68             J69             120.0       300         140         0      Open
 P66             J69             J70             120.0       300         140         0      Open
 P67             J70             J71             120.0       300         140         0      Open
 P68             J71             J72             120.0       300         140         0      Open
 P69             J72             J73             120.0       300         140         0      Open
 P70             J73             J74             120.0       300         140         0      Open
 P71             J74             J75             120.0       300         140         0      Open
 P72             J75             J76             120.0       300         140         0      Open
 P73             J76             J77             120.0       300         140         0      Open
 P74             J77             J78             120.0       300         140         0      Open
 P75             J78             J79             120.0       300         140         0      Open
 P76             J79             J80             120.0       300         140         0      Open
 P77             J81             J82             120.0       500         140         0      Open
 P78             J82             J83             120.0       300         140         0      Open
 P79             J83             J84             120.0       300         140         0      Open
 P80             J84             J85             120.0       300         140         0      Open
 P81             J85             J86             120.0       300         140         0      Open
 P82             J86             J87             120.0       300         140         0      Open
 P83             J87             J88             120.0       300         140         0      Open
 P84             J88             J89             120.0       300         140         0      Open
 P85             J89             J90             120.0       300         140         0      Open
 P86             J90             J91             120.0       300         140         0      Open
 P87             J91             J92             120.0       300         140         0      Open
 P88             J92             J93             120.0       300         140         0      Open
 P89             J93             J94             120.0       300         140         0      Open
 P90             J94             J95             120.0       300         140         0      Open
 P91             J95             J96             120.0       300         140         0      Open
 P92             J96             J97             120.0       300         140         0      Open
 P93             J97             J98             120.0       300         140         0      Open
 P94             J98             J99             120.0       300         140         0      Open
 P95             J99             J100            120.0       300         140         0      Open
 P96             J101            J102            120.0       500         140         0      Open
 P97             J102            J103            120.0       300         140         0      Open
 P98             J103            J104            120.0       300         140         0      Open
 P99             J104            J105            120.0       300         140         0      Open
 P100            J105            J106            120.0       300         140         0      Open
 P101            J106            J107            120.0       300         140         0      Open
 P102            J107            J108            120.0       300         140         0      Open
 P103            J108            J109            120.0       300         140         0      Open
 P104            J109            J110            120.0       300         140         0      Open
 P105            J110            J111            120.0       300         140         0      Open
 P106            J111            J112            120.0       300         140         0      Open
 P107            J112            J113            120.0       300         140         0      Open
 P108            J113            J114            120.0       300         140         0      Open
 P109            J114            J115            120.0       300         140         0      Open
 P110            J115            J116            120.0       300         140         0      Open
 P111            J116            J117            120.0       300         140         0      Open
 P112            J117            J118            120.0       300         140         0      Open
 P113            J118            J119            120.0       300         140         0      Open
 P114            J119            J120            120.0       300         140         0      Open
 P115            J121            J122            120.0       500         140         0      Open
 P116            J122            J123            120.0       300         140         0      Open
 P117            J123            J124            120.0       300         140         0      Open
 P118            J124            J125            120.0       300         140         0      Open
 P119            J125            J126            120.0       300         140         0      Open
 P120            J126            J127            120.0       300         140         0      Open
 P121            J127            J128            120.0       300         140         0      Open
 P122            J128            J129            120.0       300         140         0      Open
 P123            J129            J130            120.0       300         140         0      Open
 P124            J130            J131            120.0       300         140         0      Open
 P125            J131            J132            120.0       300         140         0      Open
 P126            J132            J133            120.0       300         140         0      Open
 P127            J133            J134            120.0       300         140         0      Open
 P128            J134            J135            120.0       300         140         0      Open
 P129            J135            J136            120.0       300         140         0      Open
 P130            J136            J137            120.0       300         140         0      Open
 P131            J137            J138            120.0       300         140         0      Open
 P132            J138            J139            120.0       300         140         0      Open
 P133            J139            J140            120.0       300         140         0      Open
 P134            J141            J142            120.0       500         140         0      Open
 P135            J142            J143            120.0       300         140         0      Open
 P136            J143            J144            120.0       300         140         0      Open
 P137            J144            J145            120.0       300         140         0      Open
 P138            J145            J146            120.0       300         140         0      Open
 P139            J146            J147            120.0       300         140         0      Open
 P140            J147            J148            120.0       300         140         0      Open
 P141            J148            J149            120.0       300         140         0      Open
 P142            J149            J150            120.0       300         140         0      Open
 P143            J150            J151            120.0       300         140         0      Open
 P144            J151            J152            120.0       300         140         0      Open
 P145            J152            J153            120.0       300         140         0      Open
 P146            J153            J154            120.0       300         140         0      Open
 P147            J154            J155            120.0       300         140         0      Open
 P148            J155            J156            120.0       300         140         0      Open
 P149            J156            J157            120.0       300         140         0      Open
 P150            J157            J158            120.0       300         140         0      Open
 P151            J158            J159            120.0       300         140         0      Open
 P152            J159            J160            120.0       300         140         0      Open
 P153            J161            J162            120.0       500         140         0      Open
 P154            J162            J163            120.0       300         140         0      Open
 P155            J163            J164            120.0       300         140         0      Open
 P156            J164            J165            120.0       300         140         0      Open
 P157            J165            J166            120.0       300         140         0      Open
 P158            J166            J167            120.0       300         140         0      Open
 P159            J167            J168            120.0       300         140         0      Open
 P160            J168            J169            120.0       300         140         0      Open
 P161            J169            J170            120.0       300         140         0      Open
 P162            J170            J171            120.0       300         140         0      Open
 P163            J171            J172            120.0       300         140         0      Open
 P164            J172            J173            120.0       300         140         0      Open
 P165            J173            J174            120.0       300         140         0      Open
 P166            J174            J175            120.0       300         140         0      Open
 P167            J175            J176            120.0       300         140         0      Open
 P168            J176            J177            120.0       300         140         0      Open
 P169            J177            J178            120.0       300         140         0      Open
 P170            J178            J179            120.0       300         140         0      Open
 P171            J179            J180            120.0       300         140         0      Open
 P172            J181            J182            120.0       500         140         0      Open
 P173            J182            J183            120.0       300         140         0      Open
 P174            J183            J184            120.0       300         140         0      Open
 P175            J184            J185            120.0       300         140         0      Open
 P176            J185            J186            120.0       300         140         0      Open
 P177            J186            J187            120.0       300         140         0      Open
 P178            J187            J188            120.0       300         140         0      Open
 P179            J188            J189            120.0       300         140         0      Open
 P180            J189            J190            120.0       300         140         0      Open
 P181            J190            J191            120.0       300         140         0      Open
 P182            J191            J192            120.0       300         140         0      Open
 P183            J192            J193            120.0       300         140         0      Open
 P184            J193            J194            120.0       300         140         0      Open
 P185            J194            J195            120.0       300         140         0      Open
 P186            J195            J196            120.0       300         140         0      Open
 P187            J196            J197            120.0       300         140         0      Open
 P188            J197            J198            120.0       300         140         0      Open
 P189            J198            J199            120.0       300         140         0      Open
 P190            J199            J200            120.0       300         140         0      Open
 P191            J201            J202            120.0       500         140         0      Open
 P192            J202            J203            120.0       300         140         0      Open
 P193            J203            J204            120.0       300         140         0      Open
 P194            J204            J205            120.0       300         140         0      Open
 P195            J205            J206            120.0       300         140         0      Open
 P196            J206            J207            120.0       300         140         0      Open
 P197            J207            J208            120.0       300         140         0      Open
 P198            J208            J209            120.0       300         140         0      Open