[TITLE]
;;Valles Marineris 3000 CE - sample district stormwater/sewer (SWMM 5.2)
;;Generated by the Valles Marineris Settlement Explorer. Illustrative dendritic network.

[OPTIONS]
;;Option             Value
FLOW_UNITS           CMS
INFILTRATION         HORTON
FLOW_ROUTING         DYNWAVE
LINK_OFFSETS         DEPTH
MIN_SLOPE            0
ALLOW_PONDING        NO
SKIP_STEADY_STATE    NO
START_DATE           01/01/2026
START_TIME           00:00:00
REPORT_START_DATE    01/01/2026
REPORT_START_TIME    00:00:00
END_DATE             01/01/2026
END_TIME             06:00:00
SWEEP_START          01/01
SWEEP_END            12/31
DRY_DAYS             0
REPORT_STEP          00:05:00
WET_STEP             00:01:00
DRY_STEP             01:00:00
ROUTING_STEP         0:00:15
INERTIAL_DAMPING     PARTIAL
NORMAL_FLOW_LIMITED  BOTH
FORCE_MAIN_EQUATION  H-W
VARIABLE_STEP        0.75
LENGTHENING_STEP     0
MIN_SURFAREA         1.167
MAX_TRIALS           8
HEAD_TOLERANCE       0.0015
SYS_FLOW_TOL         5
LAT_FLOW_TOL         5
MINIMUM_STEP         0.5
THREADS              1

[EVAPORATION]
;;Data Source    Parameters
CONSTANT         0.0
DRY_ONLY         NO

[RAINGAGES]
;;Name           Format    Interval SCF      Source
RG1              INTENSITY 0:05     1.0      TIMESERIES TS1

[SUBCATCHMENTS]
;;Name           Rain Gage        Outlet           Area     %Imperv  Width    %Slope   CurbLen
S1               RG1              J1               2.00     60       141      1.0      0
S2               RG1              J2               2.00     60       141      1.0      0
S3               RG1              J3               2.00     60       141      1.0      0
S4               RG1              J4               2.00     60       141      1.0      0
S5               RG1              J5               2.00     60       141      1.0      0
S6               RG1              J6               2.00     60       141      1.0      0
S7               RG1              J7               2.00     60       141      1.0      0
S8               RG1              J8               2.00     60       141      1.0      0
S9               RG1              J9               2.00     60       141      1.0      0
S10              RG1              J10              2.00     60       141      1.0      0
S11              RG1              J11              2.00     60       141      1.0      0
S12              RG1              J12              2.00     60       141      1.0      0
S13              RG1              J13              2.00     60       141      1.0      0
S14              RG1              J14              2.00     60       141      1.0      0
S15              RG1              J15              2.00     60       141      1.0      0
S16              RG1              J16              2.00     60       141      1.0      0
S17              RG1              J17              2.00     60       141      1.0      0
S18              RG1              J18              2.00     60       141      1.0      0
S19              RG1              J19              2.00     60       141      1.0      0
S20              RG1              J20              2.00     60       141      1.0      0
S21              RG1              J21              2.00     60       141      1.0      0
S22              RG1              J22              2.00     60       141      1.0      0
S23              RG1              J23              2.00     60       141      1.0      0
S24              RG1              J24              2.00     60       141      1.0      0
S25              RG1              J25              2.00     60       141      1.0      0
S26              RG1              J26              2.00     60       141      1.0      0
S27              RG1              J27              2.00     60       141      1.0      0
S28              RG1              J28              2.00     60       141      1.0      0
S29              RG1              J29              2.00     60       141      1.0      0
S30              RG1              J30              2.00     60       141      1.0      0
S31              RG1              J31              2.00     60       141      1.0      0
S32              RG1              J32              2.00     60       141      1.0      0
S33              RG1              J33              2.00     60       141      1.0      0
S34              RG1              J34              2.00     60       141      1.0      0
S35              RG1              J35              2.00     60       141      1.0      0
S36              RG1              J36              2.00     60       141      1.0      0
S37              RG1              J37              2.00     60       141      1.0      0
S38              RG1              J38              2.00     60       141      1.0      0
S39              RG1              J39              2.00     60       141      1.0      0
S40              RG1              J40              2.00     60       141      1.0      0
S41              RG1              J41              2.00     60       141      1.0      0
S42              RG1              J42              2.00     60       141      1.0      0
S43              RG1              J43              2.00     60       141      1.0      0
S44              RG1              J44              2.00     60       141      1.0      0
S45              RG1              J45              2.00     60       141      1.0      0
S46              RG1              J46              2.00     60       141      1.0      0
S47              RG1              J47              2.00     60       141      1.0      0
S48              RG1              J48              2.00     60       141      1.0      0
S49              RG1              J49              2.00     60       141      1.0      0
S50              RG1              J50              2.00     60       141      1.0      0
S51              RG1              J51              2.00     60       141      1.0      0
S52              RG1              J52              2.00     60       141      1.0      0
S53              RG1              J53              2.00     60       141      1.0      0
S54              RG1              J54              2.00     60       141      1.0      0
S55              RG1              J55              2.00     60       141      1.0      0
S56              RG1              J56              2.00     60       141      1.0      0
S57              RG1              J57              2.00     60       141      1.0      0
S58              RG1              J58              2.00     60       141      1.0      0
S59              RG1              J59              2.00     60       141      1.0      0
S60              RG1              J60              2.00     60       141      1.0      0
S61              RG1              J61              2.00     60       141      1.0      0
S62              RG1              J62              2.00     60       141      1.0      0
S63              RG1              J63              2.00     60       141      1.0      0
S64              RG1              J64              2.00     60       141      1.0      0
S65              RG1              J65              2.00     60       141      1.0      0
S66              RG1              J66              2.00     60       141      1.0      0
S67              RG1              J67              2.00     60       141      1.0      0
S68              RG1              J68              2.00     60       141      1.0      0
S69              RG1              J69              2.00     60       141      1.0      0
S70              RG1              J70              2.00     60       141      1.0      0
S71              RG1              J71              2.00     60       141      1.0      0
S72              RG1              J72              2.00     60       141      1.0      0
S73              RG1              J73              2.00     60       141      1.0      0
S74              RG1              J74              2.00     60       141      1.0      0
S75              RG1              J75              2.00     60       141      1.0      0
S76              RG1              J76              2.00     60       141      1.0      0
S77              RG1              J77              2.00     60       141      1.0      0
S78              RG1              J78              2.00     60       141      1.0      0
S79              RG1              J79              2.00     60       141      1.0      0
S80              RG1              J80              2.00     60       141      1.0      0
S81              RG1              J81              2.00     60       141      1.0      0
S82              RG1              J82              2.00     60       141      1.0      0
S83              RG1              J83              2.00     60       141      1.0      0
S84              RG1              J84              2.00     60       141      1.0      0
S85              RG1              J85              2.00     60       141      1.0      0
S86              RG1              J86              2.00     60       141      1.0      0
S87              RG1              J87              2.00     60       141      1.0      0
S88              RG1              J88              2.00     60       141      1.0      0
S89              RG1              J89              2.00     60       141      1.0      0
S90              RG1              J90              2.00     60       141      1.0      0
S91              RG1              J91              2.00     60       141      1.0      0
S92              RG1              J92              2.00     60       141      1.0      0
S93              RG1              J93              2.00     60       141      1.0      0
S94              RG1              J94              2.00     60       141      1.0      0
S95              RG1              J95              2.00     60       141      1.0      0
S96              RG1              J96              2.00     60       141      1.0      0

[SUBAREAS]
;;Subcatchment   N-Imperv   N-Perv     S-Imperv   S-Perv     PctZero    RouteTo    PctRouted
S1               0.013      0.10       1.8        5.0        25         OUTLET     100
S2               0.013      0.10       1.8        5.0        25         OUTLET     100
S3               0.013      0.10       1.8        5.0        25         OUTLET     100
S4               0.013      0.10       1.8        5.0        25         OUTLET     100
S5               0.013      0.10       1.8        5.0        25         OUTLET     100
S6               0.013      0.10       1.8        5.0        25         OUTLET     100
S7               0.013      0.10       1.8        5.0        25         OUTLET     100
S8               0.013      0.10       1.8        5.0        25         OUTLET     100
S9               0.013      0.10       1.8        5.0        25         OUTLET     100
S10              0.013      0.10       1.8        5.0        25         OUTLET     100
S11              0.013      0.10       1.8        5.0        25         OUTLET     100
S12              0.013      0.10       1.8        5.0        25         OUTLET     100
S13              0.013      0.10       1.8        5.0        25         OUTLET     100
S14              0.013      0.10       1.8        5.0        25         OUTLET     100
S15              0.013      0.10       1.8        5.0        25         OUTLET     100
S16              0.013      0.10       1.8        5.0        25         OUTLET     100
S17              0.013      0.10       1.8        5.0        25         OUTLET     100
S18              0.013      0.10       1.8        5.0        25         OUTLET     100
S19              0.013      0.10       1.8        5.0        25         OUTLET     100
S20              0.013      0.10       1.8        5.0        25         OUTLET     100
S21              0.013      0.10       1.8        5.0        25         OUTLET     100
S22              0.013      0.10       1.8        5.0        25         OUTLET     100
S23              0.013      0.10       1.8        5.0        25         OUTLET     100
S24              0.013      0.10       1.8        5.0        25         OUTLET     100
S25              0.013      0.10       1.8        5.0        25         OUTLET     100
S26              0.013      0.10       1.8        5.0        25         OUTLET     100
S27              0.013      0.10       1.8        5.0        25         OUTLET     100
S28              0.013      0.10       1.8        5.0        25         OUTLET     100
S29              0.013      0.10       1.8        5.0        25         OUTLET     100
S30              0.013      0.10       1.8        5.0        25         OUTLET     100
S31              0.013      0.10       1.8        5.0        25         OUTLET     100
S32              0.013      0.10       1.8        5.0        25         OUTLET     100
S33              0.013      0.10       1.8        5.0        25         OUTLET     100
S34              0.013      0.10       1.8        5.0        25         OUTLET     100
S35              0.013      0.10       1.8        5.0        25         OUTLET     100
S36              0.013      0.10       1.8        5.0        25         OUTLET     100
S37              0.013      0.10       1.8        5.0        25         OUTLET     100
S38              0.013      0.10       1.8        5.0        25         OUTLET     100
S39              0.013      0.10       1.8        5.0        25         OUTLET     100
S40              0.013      0.10       1.8        5.0        25         OUTLET     100
S41              0.013      0.10       1.8        5.0        25         OUTLET     100
S42              0.013      0.10       1.8        5.0        25         OUTLET     100
S43              0.013      0.10       1.8        5.0        25         OUTLET     100
S44              0.013      0.10       1.8        5.0        25         OUTLET     100
S45              0.013      0.10       1.8        5.0        25         OUTLET     100
S46              0.013      0.10       1.8        5.0        25         OUTLET     100
S47              0.013      0.10       1.8        5.0        25         OUTLET     100
S48              0.013      0.10       1.8        5.0        25         OUTLET     100
S49              0.013      0.10       1.8        5.0        25         OUTLET     100
S50              0.013      0.10       1.8        5.0        25         OUTLET     100
S51              0.013      0.10       1.8        5.0        25         OUTLET     100
S52              0.013      0.10       1.8        5.0        25         OUTLET     100
S53              0.013      0.10       1.8        5.0        25         OUTLET     100
S54              0.013      0.10       1.8        5.0        25         OUTLET     100
S55              0.013      0.10       1.8        5.0        25         OUTLET     100
S56              0.013      0.10       1.8        5.0        25         OUTLET     100
S57              0.013      0.10       1.8        5.0        25         OUTLET     100
S58              0.013      0.10       1.8        5.0        25         OUTLET     100
S59              0.013      0.10       1.8        5.0        25         OUTLET     100
S60              0.013      0.10       1.8        5.0        25         OUTLET     100
S61              0.013      0.10       1.8        5.0        25         OUTLET     100
S62              0.013      0.10       1.8        5.0        25         OUTLET     100
S63              0.013      0.10       1.8        5.0        25         OUTLET     100
S64              0.013      0.10       1.8        5.0        25         OUTLET     100
S65              0.013      0.10       1.8        5.0        25         OUTLET     100
S66              0.013      0.10       1.8        5.0        25         OUTLET     100
S67              0.013      0.10       1.8        5.0        25         OUTLET     100
S68              0.013      0.10       1.8        5.0        25         OUTLET     100
S69              0.013      0.10       1.8        5.0        25         OUTLET     100
S70              0.013      0.10       1.8        5.0        25         OUTLET     100
S71              0.013      0.10       1.8        5.0        25         OUTLET     100
S72              0.013      0.10       1.8        5.0        25         OUTLET     100
S73              0.013      0.10       1.8        5.0        25         OUTLET     100
S74              0.013      0.10       1.8        5.0        25         OUTLET     100
S75              0.013      0.10       1.8        5.0        25         OUTLET     100
S76              0.013      0.10       1.8        5.0        25         OUTLET     100
S77              0.013      0.10       1.8        5.0        25         OUTLET     100
S78              0.013      0.10       1.8        5.0        25         OUTLET     100
S79              0.013      0.10       1.8        5.0        25         OUTLET     100
S80              0.013      0.10       1.8        5.0        25         OUTLET     100
S81              0.013      0.10       1.8        5.0        25         OUTLET     100
S82              0.013      0.10       1.8        5.0        25         OUTLET     100
S83              0.013      0.10       1.8        5.0        25         OUTLET     100
S84              0.013      0.10       1.8        5.0        25         OUTLET     100
S85              0.013      0.10       1.8        5.0        25         OUTLET     100
S86              0.013      0.10       1.8        5.0        25         OUTLET     100
S87              0.013      0.10       1.8        5.0        25         OUTLET     100
S88              0.013      0.10       1.8        5.0        25         OUTLET     100
S89              0.013      0.10       1.8        5.0        25         OUTLET     100
S90              0.013      0.10       1.8        5.0        25         OUTLET     100
S91              0.013      0.10       1.8        5.0        25         OUTLET     100
S92              0.013      0.10       1.8        5.0        25         OUTLET     100
S93              0.013      0.10       1.8        5.0        25         OUTLET     100
S94              0.013      0.10       1.8        5.0        25         OUTLET     100
S95              0.013      0.10       1.8        5.0        25         OUTLET     100
S96              0.013      0.10       1.8        5.0        25         OUTLET     100

[INFILTRATION]
;;Subcatchment   Param1     Param2     Param3     Param4     Param5
S1               3.0        0.5        4          7          0
S2               3.0        0.5        4          7          0
S3               3.0        0.5        4          7          0
S4               3.0        0.5        4          7          0
S5               3.0        0.5        4          7          0
S6               3.0        0.5        4          7          0
S7               3.0        0.5        4          7          0
S8               3.0        0.5        4          7          0
S9               3.0        0.5        4          7          0
S10              3.0        0.5        4          7          0
S11              3.0        0.5        4          7          0
S12              3.0        0.5        4          7          0
S13              3.0        0.5        4          7          0
S14              3.0        0.5        4          7          0
S15              3.0        0.5        4          7          0
S16              3.0        0.5        4          7          0
S17              3.0        0.5        4          7          0
S18              3.0        0.5        4          7          0
S19              3.0        0.5        4          7          0
S20              3.0        0.5        4          7          0
S21              3.0        0.5        4          7          0
S22              3.0        0.5        4          7          0
S23              3.0        0.5        4          7          0
S24              3.0        0.5        4          7          0
S25              3.0        0.5        4          7          0
S26              3.0        0.5        4          7          0
S27              3.0        0.5        4          7          0
S28              3.0        0.5        4          7          0
S29              3.0        0.5        4          7          0
S30              3.0        0.5        4          7          0
S31              3.0        0.5        4          7          0
S32              3.0        0.5        4          7          0
S33              3.0        0.5        4          7          0
S34              3.0        0.5        4          7          0
S35              3.0        0.5        4          7          0
S36              3.0        0.5        4          7          0
S37              3.0        0.5        4          7          0
S38              3.0        0.5        4          7          0
S39              3.0        0.5        4          7          0
S40              3.0        0.5        4          7          0
S41              3.0        0.5        4          7          0
S42              3.0        0.5        4          7          0
S43              3.0        0.5        4          7          0
S44              3.0        0.5        4          7          0
S45              3.0        0.5        4          7          0
S46              3.0        0.5        4          7          0
S47              3.0        0.5        4          7          0
S48              3.0        0.5        4          7          0
S49              3.0        0.5        4          7          0
S50              3.0        0.5        4          7          0
S51              3.0        0.5        4          7          0
S52              3.0        0.5        4          7          0
S53              3.0        0.5        4          7          0
S54              3.0        0.5        4          7          0
S55              3.0        0.5        4          7          0
S56              3.0        0.5        4          7          0
S57              3.0        0.5        4          7          0
S58              3.0        0.5        4          7          0
S59              3.0        0.5        4          7          0
S60              3.0        0.5        4          7          0
S61              3.0        0.5        4          7          0
S62              3.0        0.5        4          7          0
S63              3.0        0.5        4          7          0
S64              3.0        0.5        4          7          0
S65              3.0        0.5        4          7          0
S66              3.0        0.5        4          7          0
S67              3.0        0.5        4          7          0
S68              3.0        0.5        4          7          0
S69              3.0        0.5        4          7          0
S70              3.0        0.5        4          7          0
S71              3.0        0.5        4          7          0
S72              3.0        0.5        4          7          0
S73              3.0        0.5        4          7          0
S74              3.0        0.5        4          7          0
S75              3.0        0.5        4          7          0
S76              3.0        0.5        4          7          0
S77              3.0        0.5        4          7          0
S78              3.0        0.5        4          7          0
S79              3.0        0.5        4          7          0
S80              3.0        0.5        4          7          0
S81              3.0        0.5        4          7          0
S82              3.0        0.5        4          7          0
S83              3.0        0.5        4          7          0
S84              3.0        0.5        4          7          0
S85              3.0        0.5        4          7          0
S86              3.0        0.5        4          7          0
S87              3.0        0.5        4          7          0
S88              3.0        0.5        4          7          0
S89              3.0        0.5        4          7          0
S90              3.0        0.5        4          7          0
S91              3.0        0.5        4          7          0
S92              3.0        0.5        4          7          0
S93              3.0        0.5        4          7          0
S94              3.0        0.5        4          7          0
S95              3.0        0.5        4          7          0
S96              3.0        0.5        4          7          0

[JUNCTIONS]
;;Name           Elevation  MaxDepth   InitDepth  SurDepth   Aponded
J1               12.00      4          0          0          0
J2               12.00      4          0          0          0
J3               12.00      4          0          0          0
J4               12.00      4          0          0          0
J5               12.00      4          0          0          0
J6               12.00      4          0          0          0
J7               12.00      4          0          0          0
J8               12.00      4          0          0          0
J9               12.00      4          0          0          0
J10              12.00      4          0          0          0
J11              12.00      4          0          0          0
J12              12.00      4          0          0          0
J13              10.50      4          0          0          0
J14              10.50      4          0          0          0
J15              10.50      4          0          0          0
J16              10.50      4          0          0          0
J17              10.50      4          0          0          0
J18              10.50      4          0          0          0
J19              10.50      4          0          0          0
J20              10.50      4          0          0          0
J21              10.50      4          0          0          0
J22              10.50      4          0          0          0
J23              10.50      4          0          0          0
J24              10.50      4          0          0          0
J25              9.00       4          0          0          0
J26              9.00       4          0          0          0
J27              9.00       4          0          0          0
J28              9.00       4          0          0          0
J29              9.00       4          0          0          0
J30              9.00       4          0          0          0
J31              9.00       4          0          0          0
J32              9.00       4          0          0          0
J33              9.00       4          0          0          0
J34              9.00       4          0          0          0
J35              9.00       4          0          0          0
J36              9.00       4          0          0          0
J37              7.50       4          0          0          0
J38              7.50       4          0          0          0
J39              7.50       4          0          0          0
J40              7.50       4          0          0          0
J41              7.50       4          0          0          0
J42              7.50       4          0          0          0
J43              7.50       4          0          0          0
J44              7.50       4          0          0          0
J45              7.50       4          0          0          0
J46              7.50       4          0          0          0
J47              7.50       4          0          0          0
J48              7.50       4          0          0          0
J49              6.00       4          0          0          0
J50              6.00       4          0          0          0
J51              6.00       4          0          0          0
J52              6.00       4          0          0          0
J53              6.00       4          0          0          0
J54              6.00       4          0          0          0
J55              6.00       4          0          0          0
J56              6.00       4          0          0          0
J57              6.00       4          0          0          0
J58              6.00       4          0          0          0
J59              6.00       4          0          0          0
J60              6.00       4          0          0          0
J61              4.50       4          0          0          0
J62              4.50       4          0          0          0
J63              4.50       4          0          0          0
J64              4.50       4          0          0          0
J65              4.50       4          0          0          0
J66              4.50       4          0          0          0
J67              4.50       4          0          0          0
J68              4.50       4          0          0          0
J69              4.50       4          0          0          0
J70              4.50       4          0          0          0
J71              4.50       4          0          0          0
J72              4.50       4          0          0          0
J73              3.00       4          0          0          0
J74              3.00       4          0          0          0
J75              3.00       4          0          0          0
J76              3.00       4          0          0          0
J77              3.00       4          0          0          0
J78              3.00       4          0          0          0
J79              3.00       4          0          0          0
J80              3.00       4          0          0          0
J81              3.00       4          0          0          0
J82              3.00       4          0          0          0
J83              3.00       4          0          0          0
J84              3.00       4          0          0          0
J85              1.50       4          0          0          0